Travis150-updated/syn-austin-T_only-v03.RAW
@!IC, SBASE,REV,XFRRAT,NXFRAT,BASFRQ
0,    100.00, 35, 0, 0, 60.00       / June 21, 2026 13:31:06; Simulator Version 24; BuildDate 2025_4_28


GENERAL, THRSHZ=0.0002, PQBRAK=0.7, BLOWUP=5.0
GAUSS, ITMX=100, ACCP=1.6, ACCQ=1.6, ACCM=1.0, TOL=0.0001
NEWTON, ITMXN=50, ACCN=1.0, TOLN=0.1, VCTOLQ=0.1, VCTOLV=0.00001, DVLIM=0.99, NDVFCT=0.99
ADJUST, ADJTHR=0.005, ACCTAP=1.0, TAPLIM=0.05, SWVBND=100.0, MXTPSS=99, MXSWIM=10
TYSL, ITMXTY=20, ACCTY=1.0, TOLTY=0.00001
SOLVER, FNSL, ACTAPS=1, AREAIN=2, PHSHFT=1, DCTAPS=1, SWSHNT=1, FLATST=0, VARLIM=0, NONDIV=0
RATING, 1, "      ", "                                "
RATING, 2, "      ", "                                "
RATING, 3, "      ", "                                "
RATING, 4, "      ", "                                "
RATING, 5, "      ", "                                "
RATING, 6, "      ", "                                "
RATING, 7, "      ", "                                "
RATING, 8, "      ", "                                "
RATING, 9, "      ", "                                "
RATING,10, "      ", "                                "
RATING,11, "      ", "                                "
RATING,12, "      ", "                                "
0 / END OF SYSTEM-WIDE DATA, BEGIN BUS DATA
@!   I,'NAME        ', BASKV, IDE,AREA,ZONE,OWNER, VM,        VA,    NVHI,   NVLO,   EVHI,   EVLO
     1,'Travis_DS_~1',  69.0000,1,   1,   1,   1,1.00276,  -9.8204,1.10000,0.90000,1.10000,0.90000
     2,'Travis_DS~47',  69.0000,1,   1,   1,   1,1.01830,  -8.1492,1.10000,0.90000,1.10000,0.90000
     3,'Travis_DS~62',  69.0000,1,   1,   1,   1,1.01909,  -8.3432,1.10000,0.90000,1.10000,0.90000
     4,'Travis_DS~77',  69.0000,1,   1,   1,   1,1.01860,  -8.4507,1.10000,0.90000,1.10000,0.90000
     5,'Travis_DS~89',  69.0000,1,   1,   1,   1,1.01966,  -8.0267,1.10000,0.90000,1.10000,0.90000
     6,'Travis_D~103',  69.0000,1,   1,   1,   1,1.01956,  -8.0643,1.10000,0.90000,1.10000,0.90000
     7,'Travis_D~114',  69.0000,1,   1,   1,   1,1.00800,  -9.4350,1.10000,0.90000,1.10000,0.90000
     8,'Travis_D~127',  69.0000,1,   1,   1,   1,1.00168, -10.2719,1.10000,0.90000,1.10000,0.90000
     9,'Travis_D~139',  69.0000,1,   1,   1,   1,1.00289,  -9.8241,1.10000,0.90000,1.10000,0.90000
    10,'Travis_DS_~2',  69.0000,1,   1,   1,   1,1.00980,  -8.9883,1.10000,0.90000,1.10000,0.90000
    11,'Travis_DS~13',  69.0000,1,   1,   1,   1,1.01716,  -8.4901,1.10000,0.90000,1.10000,0.90000
    12,'Travis_DS~26',  69.0000,1,   1,   1,   1,0.99974, -10.1708,1.10000,0.90000,1.10000,0.90000
    13,'Travis_DS~37',  69.0000,1,   1,   1,   1,1.03116,  -6.1997,1.10000,0.90000,1.10000,0.90000
    14,'Travis_DS~38',  69.0000,1,   1,   1,   1,1.01823,  -8.1633,1.10000,0.90000,1.10000,0.90000
    15,'Travis_DS~39',  69.0000,1,   1,   1,   1,0.99669, -10.9122,1.10000,0.90000,1.10000,0.90000
    16,'Travis_DS~40',  69.0000,1,   1,   1,   1,1.00522,  -9.7391,1.10000,0.90000,1.10000,0.90000
    17,'Travis_DS~41', 230.0000,1,   1,   1,   1,1.01945,  -6.8671,1.10000,0.90000,1.10000,0.90000
    18,'Travis_DS~42',  69.0000,1,   1,   1,   1,1.00122, -10.4806,1.10000,0.90000,1.10000,0.90000
    19,'Travis_DS~43',  13.8000,1,   1,   1,   1,0.98584, -14.6213,1.10000,0.90000,1.10000,0.90000
    21,'Travis_DS~45',  69.0000,1,   1,   1,   1,1.00250, -10.2169,1.10000,0.90000,1.10000,0.90000
    22,'Travis_DS~46',  69.0000,1,   1,   1,   1,1.00298, -10.0499,1.10000,0.90000,1.10000,0.90000
    23,'Travis_DS~48',  69.0000,1,   1,   1,   1,0.99294, -10.8051,1.10000,0.90000,1.10000,0.90000
    24,'Travis_DS~49',  69.0000,1,   1,   1,   1,0.99960, -10.7128,1.10000,0.90000,1.10000,0.90000
    25,'Travis_DS~50',  69.0000,1,   1,   1,   1,0.99071, -11.2028,1.10000,0.90000,1.10000,0.90000
    26,'Travis_DS~51',  18.0000,1,   1,   1,   1,0.99071, -11.2028,1.10000,0.90000,1.10000,0.90000
    27,'Travis_DS~52',  18.0000,1,   1,   1,   1,0.99071, -11.2028,1.10000,0.90000,1.10000,0.90000
    29,'Travis_DS~54',  69.0000,1,   1,   1,   1,0.99386, -11.0630,1.10000,0.90000,1.10000,0.90000
    30,'Travis_DS~55',  69.0000,1,   1,   1,   1,0.99091, -11.1078,1.10000,0.90000,1.10000,0.90000
    31,'Travis_DS~56',  69.0000,1,   1,   1,   1,1.00767,  -9.4810,1.10000,0.90000,1.10000,0.90000
    32,'Travis_DS~57', 230.0000,1,   1,   1,   1,1.01360,  -8.1723,1.10000,0.90000,1.10000,0.90000
    33,'Travis_DS~58',  69.0000,1,   1,   1,   1,1.00968,  -9.2849,1.10000,0.90000,1.10000,0.90000
    34,'Travis_DS~59',  69.0000,1,   1,   1,   1,1.00220, -10.1433,1.10000,0.90000,1.10000,0.90000
    35,'Travis_DS~60',  69.0000,1,   1,   1,   1,0.99528, -10.5225,1.10000,0.90000,1.10000,0.90000
    36,'Travis_DS~61',  69.0000,1,   1,   1,   1,0.99563, -11.0116,1.10000,0.90000,1.10000,0.90000
    37,'Travis_DS~63',  69.0000,1,   1,   1,   1,1.00477,  -9.7287,1.10000,0.90000,1.10000,0.90000
    38,'Travis_DS~64',  69.0000,1,   1,   1,   1,1.00755,  -9.3125,1.10000,0.90000,1.10000,0.90000
    39,'Travis_DS~65', 230.0000,1,   1,   1,   1,1.01625,  -7.5588,1.10000,0.90000,1.10000,0.90000
    40,'Travis_DS~66',  69.0000,1,   1,   1,   1,1.01135,  -8.9377,1.10000,0.90000,1.10000,0.90000
    41,'Travis_DS~67',  69.0000,1,   1,   1,   1,0.99962, -10.0226,1.10000,0.90000,1.10000,0.90000
    42,'Travis_DS~68',  69.0000,1,   1,   1,   1,0.99960, -10.0421,1.10000,0.90000,1.10000,0.90000
    43,'Travis_DS~69',  69.0000,1,   1,   1,   1,1.00132,  -9.9001,1.10000,0.90000,1.10000,0.90000
    44,'Travis_DS~70',  69.0000,1,   1,   1,   1,1.00040, -10.4031,1.10000,0.90000,1.10000,0.90000
    45,'Travis_DS~71',  69.0000,1,   1,   1,   1,0.99852, -10.1697,1.10000,0.90000,1.10000,0.90000
    46,'Travis_DS~72', 230.0000,1,   1,   1,   1,1.01739,  -7.2806,1.10000,0.90000,1.10000,0.90000
    47,'Travis_DS~73',  69.0000,1,   1,   1,   1,1.00145, -10.3246,1.10000,0.90000,1.10000,0.90000
    48,'Travis_DS~74',  22.0000,1,   1,   1,   1,0.98295, -15.0872,1.10000,0.90000,1.10000,0.90000
    50,'Travis_DS~76',  69.0000,1,   1,   1,   1,0.99527, -10.4845,1.10000,0.90000,1.10000,0.90000
    51,'Travis_DS~78',  69.0000,1,   1,   1,   1,0.99955, -10.0673,1.10000,0.90000,1.10000,0.90000
    52,'Travis_DS~79',  69.0000,1,   1,   1,   1,0.99884, -10.1780,1.10000,0.90000,1.10000,0.90000
    53,'Travis_DS~80',  69.0000,1,   1,   1,   1,1.01443,  -8.5409,1.10000,0.90000,1.10000,0.90000
    54,'Travis_DS~81',  69.0000,1,   1,   1,   1,1.01726,  -8.0617,1.10000,0.90000,1.10000,0.90000
    55,'Travis_DS~82',  69.0000,1,   1,   1,   1,0.99143, -11.6009,1.10000,0.90000,1.10000,0.90000
    56,'Travis_DS~83',  69.0000,1,   1,   1,   1,0.99455, -11.0502,1.10000,0.90000,1.10000,0.90000
    57,'Travis_DS~84',  69.0000,1,   1,   1,   1,0.99012, -11.5599,1.10000,0.90000,1.10000,0.90000
    58,'Travis_DS~85', 230.0000,1,   1,   1,   1,1.01710,  -7.5373,1.10000,0.90000,1.10000,0.90000
    59,'Travis_DS~86',  69.0000,1,   1,   1,   1,0.99505, -11.6237,1.10000,0.90000,1.10000,0.90000
    60,'Travis_DS~87',  69.0000,1,   1,   1,   1,0.99566, -10.9193,1.10000,0.90000,1.10000,0.90000
    61,'Travis_DS~88',  69.0000,1,   1,   1,   1,0.99533, -10.7690,1.10000,0.90000,1.10000,0.90000
    62,'Travis_DS~90',  69.0000,1,   1,   1,   1,0.99484, -10.8624,1.10000,0.90000,1.10000,0.90000
    63,'Travis_DS~91',  69.0000,1,   1,   1,   1,0.99396, -11.2734,1.10000,0.90000,1.10000,0.90000
    64,'Travis_DS~92',  69.0000,1,   1,   1,   1,1.00200, -10.1169,1.10000,0.90000,1.10000,0.90000
    65,'Travis_DS~93',  69.0000,1,   1,   1,   1,0.99801, -10.7225,1.10000,0.90000,1.10000,0.90000
    66,'Travis_DS~94',  69.0000,1,   1,   1,   1,1.01255,  -8.7991,1.10000,0.90000,1.10000,0.90000
    67,'Travis_DS~95',  69.0000,1,   1,   1,   1,1.01514,  -8.6260,1.10000,0.90000,1.10000,0.90000
    68,'Travis_DS~96', 230.0000,1,   1,   1,   1,1.01771,  -7.4766,1.10000,0.90000,1.10000,0.90000
    69,'Travis_DS~97',  69.0000,1,   1,   1,   1,1.01104,  -9.1225,1.10000,0.90000,1.10000,0.90000
    70,'Travis_DS~98', 230.0000,1,   1,   1,   1,1.01635,  -7.6540,1.10000,0.90000,1.10000,0.90000
    71,'Travis_DS~99',  69.0000,1,   1,   1,   1,1.00059, -10.5695,1.10000,0.90000,1.10000,0.90000
    72,'Travis_D~100',  69.0000,1,   1,   1,   1,0.99927, -10.6855,1.10000,0.90000,1.10000,0.90000
    73,'Travis_D~101', 230.0000,1,   1,   1,   1,1.02152,  -6.9108,1.10000,0.90000,1.10000,0.90000
    74,'Travis_D~102',  69.0000,1,   1,   1,   1,1.00611,  -9.8097,1.10000,0.90000,1.10000,0.90000
    75,'Travis_D~104',  69.0000,1,   1,   1,   1,0.99775, -10.5161,1.10000,0.90000,1.10000,0.90000
    76,'Travis_D~105',  69.0000,1,   1,   1,   1,0.99505, -10.7563,1.10000,0.90000,1.10000,0.90000
    77,'Travis_D~106',  69.0000,1,   1,   1,   1,0.99951, -10.3285,1.10000,0.90000,1.10000,0.90000
    78,'Travis_D~107',  69.0000,1,   1,   1,   1,1.00168, -10.1452,1.10000,0.90000,1.10000,0.90000
    79,'Travis_D~108',  69.0000,1,   1,   1,   1,1.00184, -10.1401,1.10000,0.90000,1.10000,0.90000
    80,'Travis_D~109',  69.0000,1,   1,   1,   1,1.00466,  -9.6803,1.10000,0.90000,1.10000,0.90000
    81,'Travis_D~110',  69.0000,1,   1,   1,   1,1.00397,  -9.7561,1.10000,0.90000,1.10000,0.90000
    82,'Travis_D~111',  69.0000,1,   1,   1,   1,1.00714,  -9.4460,1.10000,0.90000,1.10000,0.90000
    83,'Travis_D~112',  69.0000,1,   1,   1,   1,1.00290,  -9.9101,1.10000,0.90000,1.10000,0.90000
    84,'Travis_D~113',  69.0000,1,   1,   1,   1,0.97915, -12.7438,1.10000,0.90000,1.10000,0.90000
    85,'Travis_D~115',  69.0000,1,   1,   1,   1,0.98890, -12.0884,1.10000,0.90000,1.10000,0.90000
    86,'Travis_D~116',  69.0000,1,   1,   1,   1,1.01259,  -8.7905,1.10000,0.90000,1.10000,0.90000
    87,'Travis_D~117', 230.0000,1,   1,   1,   1,1.03039,  -5.7579,1.10000,0.90000,1.10000,0.90000
    88,'Travis_D~118',  69.0000,1,   1,   1,   1,1.02416,  -7.5964,1.10000,0.90000,1.10000,0.90000
    89,'Travis_D~119',  69.0000,1,   1,   1,   1,1.01631,  -8.3943,1.10000,0.90000,1.10000,0.90000
    90,'Travis_D~120',  69.0000,1,   1,   1,   1,1.01730,  -8.2696,1.10000,0.90000,1.10000,0.90000
    91,'Travis_D~121',  69.0000,1,   1,   1,   1,1.01807,  -8.3182,1.10000,0.90000,1.10000,0.90000
    92,'Travis_D~122',  69.0000,1,   1,   1,   1,1.00770,  -9.1964,1.10000,0.90000,1.10000,0.90000
    93,'Travis_D~123',  69.0000,1,   1,   1,   1,0.98871, -12.1154,1.10000,0.90000,1.10000,0.90000
    94,'Travis_D~124', 230.0000,1,   1,   1,   1,1.01482,  -7.9950,1.10000,0.90000,1.10000,0.90000
    95,'Travis_D~125',  69.0000,1,   1,   1,   1,1.00260, -10.4965,1.10000,0.90000,1.10000,0.90000
    96,'Travis_D~126',  69.0000,1,   1,   1,   1,0.97758, -12.9227,1.10000,0.90000,1.10000,0.90000
    97,'Travis_D~128',  69.0000,1,   1,   1,   1,0.99099, -11.9665,1.10000,0.90000,1.10000,0.90000
    98,'Travis_D~129',  69.0000,1,   1,   1,   1,0.97577, -13.1579,1.10000,0.90000,1.10000,0.90000
    99,'Travis_D~130',  69.0000,1,   1,   1,   1,0.98132, -12.8004,1.10000,0.90000,1.10000,0.90000
   100,'Travis_D~131',  69.0000,1,   1,   1,   1,0.98981, -11.9422,1.10000,0.90000,1.10000,0.90000
   101,'Travis_D~132', 230.0000,1,   1,   1,   1,1.01541,  -7.8068,1.10000,0.90000,1.10000,0.90000
   102,'Travis_D~133',  69.0000,1,   1,   1,   1,0.99722, -11.2521,1.10000,0.90000,1.10000,0.90000
   103,'Travis_D~134',  69.0000,1,   1,   1,   1,0.98689, -11.9359,1.10000,0.90000,1.10000,0.90000
   104,'Travis_D~135',  69.0000,1,   1,   1,   1,0.97900, -12.7570,1.10000,0.90000,1.10000,0.90000
   105,'Travis_D~136',  69.0000,1,   1,   1,   1,0.98960, -11.7426,1.10000,0.90000,1.10000,0.90000
   106,'Travis_D~137',  69.0000,1,   1,   1,   1,0.99887, -11.0421,1.10000,0.90000,1.10000,0.90000
   107,'Travis_D~138',  69.0000,1,   1,   1,   1,0.99395, -11.4241,1.10000,0.90000,1.10000,0.90000
   108,'Travis_D~140',  69.0000,1,   1,   1,   1,1.00355, -10.6795,1.10000,0.90000,1.10000,0.90000
   109,'Travis_D~141',  69.0000,1,   1,   1,   1,1.00004, -10.6847,1.10000,0.90000,1.10000,0.90000
   110,'Travis_D~142',  69.0000,1,   1,   1,   1,0.99067, -11.1059,1.10000,0.90000,1.10000,0.90000
   111,'Travis_D~143',  69.0000,1,   1,   1,   1,0.99668, -10.5409,1.10000,0.90000,1.10000,0.90000
   112,'Travis_D~144',  69.0000,1,   1,   1,   1,0.99352, -11.2199,1.10000,0.90000,1.10000,0.90000
   113,'Travis_D~145',  69.0000,1,   1,   1,   1,0.99392, -11.3092,1.10000,0.90000,1.10000,0.90000
   114,'Travis_D~146',  69.0000,1,   1,   1,   1,0.99616, -11.0483,1.10000,0.90000,1.10000,0.90000
   115,'Travis_D~147',  69.0000,1,   1,   1,   1,0.99686, -10.7710,1.10000,0.90000,1.10000,0.90000
   116,'Travis_D~148',  69.0000,1,   1,   1,   1,1.00046, -10.5767,1.10000,0.90000,1.10000,0.90000
   117,'Travis_D~149',  69.0000,1,   1,   1,   1,1.00556, -10.0051,1.10000,0.90000,1.10000,0.90000
   118,'Travis_DS_~3',  69.0000,1,   1,   1,   1,1.00318, -10.3454,1.10000,0.90000,1.10000,0.90000
   119,'Travis_DS_~4',  69.0000,1,   1,   1,   1,1.00832,  -9.8384,1.10000,0.90000,1.10000,0.90000
   120,'Travis_DS_~5',  69.0000,1,   1,   1,   1,1.00682, -10.0183,1.10000,0.90000,1.10000,0.90000
   121,'Travis_DS_~6',  69.0000,1,   1,   1,   1,1.00343, -10.2362,1.10000,0.90000,1.10000,0.90000
   122,'Travis_DS_~7',  69.0000,1,   1,   1,   1,1.00598, -10.0620,1.10000,0.90000,1.10000,0.90000
   123,'Travis_DS_~8',  69.0000,1,   1,   1,   1,1.00284, -10.2467,1.10000,0.90000,1.10000,0.90000
   124,'Travis_DS_~9',  69.0000,1,   1,   1,   1,1.00678,  -9.9865,1.10000,0.90000,1.10000,0.90000
   125,'Travis_DS~10',  69.0000,1,   1,   1,   1,1.00443,  -9.9789,1.10000,0.90000,1.10000,0.90000
   126,'Travis_DS~11',  69.0000,1,   1,   1,   1,1.00296,  -9.8939,1.10000,0.90000,1.10000,0.90000
   127,'Travis_DS~12',  69.0000,1,   1,   1,   1,0.99566, -10.9564,1.10000,0.90000,1.10000,0.90000
   128,'Travis_DS~14',  69.0000,1,   1,   1,   1,1.00161, -10.1743,1.10000,0.90000,1.10000,0.90000
   129,'Travis_DS~15',  69.0000,1,   1,   1,   1,0.99735, -10.7571,1.10000,0.90000,1.10000,0.90000
   130,'Travis_DS~16',  69.0000,1,   1,   1,   1,0.99714, -10.7415,1.10000,0.90000,1.10000,0.90000
   131,'Travis_DS~17', 230.0000,1,   1,   1,   1,1.01770,  -7.4720,1.10000,0.90000,1.10000,0.90000
   132,'Travis_DS~18',  69.0000,1,   1,   1,   1,1.00549, -10.1772,1.10000,0.90000,1.10000,0.90000
   133,'Travis_DS~19',  69.0000,1,   1,   1,   1,1.00037, -10.4271,1.10000,0.90000,1.10000,0.90000
   134,'Travis_DS~20',  69.0000,1,   1,   1,   1,0.99434, -10.9649,1.10000,0.90000,1.10000,0.90000
   135,'Travis_DS~21',  69.0000,1,   1,   1,   1,1.00313, -10.1497,1.10000,0.90000,1.10000,0.90000
   136,'Travis_DS~22',  69.0000,1,   1,   1,   1,1.00087, -10.3882,1.10000,0.90000,1.10000,0.90000
   137,'Travis_DS~23', 230.0000,1,   1,   1,   1,1.02110,  -6.9567,1.10000,0.90000,1.10000,0.90000
   138,'Travis_DS~24',  69.0000,1,   1,   1,   1,1.00976,  -9.5637,1.10000,0.90000,1.10000,0.90000
   139,'Travis_DS~25',  69.0000,1,   1,   1,   1,1.00495, -10.0422,1.10000,0.90000,1.10000,0.90000
   140,'Travis_DS~27',  69.0000,1,   1,   1,   1,1.00410, -10.0048,1.10000,0.90000,1.10000,0.90000
   141,'Travis_DS~28',  69.0000,1,   1,   1,   1,0.99563, -10.9434,1.10000,0.90000,1.10000,0.90000
   142,'Travis_DS~29',  69.0000,1,   1,   1,   1,1.00374, -10.1490,1.10000,0.90000,1.10000,0.90000
   143,'Travis_DS~30',  69.0000,1,   1,   1,   1,1.00278, -10.0623,1.10000,0.90000,1.10000,0.90000
   144,'Travis_DS~31',  69.0000,1,   1,   1,   1,1.00387,  -9.9912,1.10000,0.90000,1.10000,0.90000
   145,'Travis_DS~32',  69.0000,1,   1,   1,   1,1.00806,  -9.5406,1.10000,0.90000,1.10000,0.90000
   146,'Travis_DS~33',  69.0000,1,   1,   1,   1,1.00479,  -9.9017,1.10000,0.90000,1.10000,0.90000
   147,'Travis_DS~34', 230.0000,1,   1,   1,   1,1.02800,  -5.9991,1.10000,0.90000,1.10000,0.90000
   148,'Travis_DS~35',  69.0000,1,   1,   1,   1,1.00799,  -9.6136,1.10000,0.90000,1.10000,0.90000
   149,'Travis_DS~36',  69.0000,1,   1,   1,   1,1.00321, -10.0611,1.10000,0.90000,1.10000,0.90000
   150,'Marshall F~1', 230.0000,1,   1,   1,   1,1.01662,  -7.7068,1.10000,0.90000,1.10000,0.90000
   151,'Marshall F~2',  69.0000,2,   1,   1,   1,1.00691, -10.3643,1.10000,0.90000,1.10000,0.90000
   152,'Central Ut~1',  69.0000,2,   1,   1,   1,0.99360, -11.2396,1.10000,0.90000,1.10000,0.90000
   153,'Central Ut~2',  13.8000,2,   1,   1,   1,0.99360, -11.2396,1.10000,0.90000,1.10000,0.90000
   154,'Central Ut~3',  13.8000,2,   1,   1,   1,0.99360, -11.2396,1.10000,0.90000,1.10000,0.90000
   156,'Austin Pow~1',  69.0000,2,   1,   1,   1,0.99793, -10.7690,1.10000,0.90000,1.10000,0.90000
   157,'Weaver Pow~1', 230.0000,1,   1,   1,   1,1.02532,  -6.3026,1.10000,0.90000,1.10000,0.90000
   158,'Weaver Pow~2',  69.0000,2,   1,   1,   1,1.01037,  -9.6816,1.10000,0.90000,1.10000,0.90000
   159,'Mueller En~1',  69.0000,2,   1,   1,   1,1.00292, -10.0996,1.10000,0.90000,1.10000,0.90000
   160,'IKEA Solar~1',  69.0000,2,   1,   1,   1,0.99466, -11.2302,1.10000,0.90000,1.10000,0.90000
   161,'Sand Hill ~1', 230.0000,3,   1,   1,   1,1.04000,  -4.5451,1.10000,0.90000,1.10000,0.90000
   162,'Sand Hill ~2',  69.0000,1,   1,   1,   1,1.02126,  -8.2059,1.10000,0.90000,1.10000,0.90000
   163,'Decker Cre~1', 230.0000,2,   1,   1,   1,1.03603,  -4.6678,1.10000,0.90000,1.10000,0.90000
   164,'Decker Cre~2',  69.0000,1,   1,   1,   1,1.02394,  -7.8828,1.10000,0.90000,1.10000,0.90000
   165,'Bastrop En~1', 230.0000,2,   1,   1,   1,1.04000,  -3.7265,1.10000,0.90000,1.10000,0.90000
   166,'Bastrop En~2',  69.0000,1,   1,   1,   1,1.03705,  -5.4573,1.10000,0.90000,1.10000,0.90000
   167,'Bastrop En~3',  13.8000,1,   1,   1,   1,1.03456,  -7.8402,1.10000,0.90000,1.10000,0.90000
   169,'Webbervill~1',  69.0000,2,   1,   1,   1,1.01923,  -8.0134,1.10000,0.90000,1.10000,0.90000
   170,'Lost Pines~1', 230.0000,2,   1,   1,   1,1.04000,   0.8063,1.10000,0.90000,1.10000,0.90000
   171,'Lost Pines~2',  69.0000,1,   1,   1,   1,1.04000,   0.8063,1.10000,0.90000,1.10000,0.90000
   172,'Sam Gideon~1', 230.0000,2,   1,   1,   1,1.04000,   0.7066,1.10000,0.90000,1.10000,0.90000
   173,'Sam Gideon~2',  69.0000,1,   1,   1,   1,1.04000,   0.7066,1.10000,0.90000,1.10000,0.90000
0 / END OF BUS DATA, BEGIN LOAD DATA
@!   I,'ID',STAT,AREA,ZONE,      PL,        QL,        IP,        IQ,        YP,        YQ, OWNER,SCALE,INTRPT,  DGENP,     DGENQ, DGENM, LOADTYPE
    1,'1 ',1,   1,   1,    20.890,     4.475,     0.000,     0.000,     0.000,     0.000,   1,1, 0,     0.000,     0.000, 1,'            '
    2,'1 ',1,   1,   1,    22.220,     4.592,     0.000,     0.000,     0.000,     0.000,   1,1, 0,     0.000,     0.000, 1,'            '
    3,'1 ',1,   1,   1,    15.970,     3.686,     0.000,     0.000,     0.000,     0.000,   1,1, 0,     0.000,     0.000, 1,'            '
    4,'1 ',1,   1,   1,    23.680,     4.964,     0.000,     0.000,     0.000,     0.000,   1,1, 0,     0.000,     0.000, 1,'            '
    5,'1 ',1,   1,   1,    10.610,     2.200,     0.000,     0.000,     0.000,     0.000,   1,1, 0,     0.000,     0.000, 1,'            '
    6,'1 ',1,   1,   1,     6.740,     1.398,     0.000,     0.000,     0.000,     0.000,   1,1, 0,     0.000,     0.000, 1,'            '
    7,'1 ',1,   1,   1,    28.270,     6.281,     0.000,     0.000,     0.000,     0.000,   1,1, 0,     0.000,     0.000, 1,'            '
    8,'1 ',1,   1,   1,    27.900,     6.108,     0.000,     0.000,     0.000,     0.000,   1,1, 0,     0.000,     0.000, 1,'            '
    9,'1 ',1,   1,   1,    15.320,     3.623,     0.000,     0.000,     0.000,     0.000,   1,1, 0,     0.000,     0.000, 1,'            '
   10,'1 ',1,   1,   1,    13.820,     2.863,     0.000,     0.000,     0.000,     0.000,   1,1, 0,     0.000,     0.000, 1,'            '
   11,'1 ',1,   1,   1,    17.600,     3.692,     0.000,     0.000,     0.000,     0.000,   1,1, 0,     0.000,     0.000, 1,'            '
   12,'1 ',1,   1,   1,    14.320,     3.220,     0.000,     0.000,     0.000,     0.000,   1,1, 0,     0.000,     0.000, 1,'            '
   13,'1 ',1,   1,   1,    14.060,     2.882,     0.000,     0.000,     0.000,     0.000,   1,1, 0,     0.000,     0.000, 1,'            '
   14,'1 ',1,   1,   1,     2.790,     0.580,     0.000,     0.000,     0.000,     0.000,   1,1, 0,     0.000,     0.000, 1,'            '
   15,'1 ',1,   1,   1,    36.940,     7.614,     0.000,     0.000,     0.000,     0.000,   1,1, 0,     0.000,     0.000, 1,'            '
   16,'1 ',1,   1,   1,    31.700,     6.495,     0.000,     0.000,     0.000,     0.000,   1,1, 0,     0.000,     0.000, 1,'            '
   18,'1 ',1,   1,   1,    53.720,    11.573,     0.000,     0.000,     0.000,     0.000,   1,1, 0,     0.000,     0.000, 1,'            '
   21,'1 ',1,   1,   1,     6.160,     1.347,     0.000,     0.000,     0.000,     0.000,   1,1, 0,     0.000,     0.000, 1,'            '
   22,'1 ',1,   1,   1,    11.050,     2.304,     0.000,     0.000,     0.000,     0.000,   1,1, 0,     0.000,     0.000, 1,'            '
   23,'1 ',1,   1,   1,    30.570,     6.210,     0.000,     0.000,     0.000,     0.000,   1,1, 0,     0.000,     0.000, 1,'            '
   24,'1 ',1,   1,   1,    12.650,     2.608,     0.000,     0.000,     0.000,     0.000,   1,1, 0,     0.000,     0.000, 1,'            '
   25,'1 ',1,   1,   1,    22.870,     4.719,     0.000,     0.000,     0.000,     0.000,   1,1, 0,     0.000,     0.000, 1,'            '
   29,'1 ',1,   1,   1,    23.930,     4.868,     0.000,     0.000,     0.000,     0.000,   1,1, 0,     0.000,     0.000, 1,'            '
   30,'1 ',1,   1,   1,    18.740,     3.838,     0.000,     0.000,     0.000,     0.000,   1,1, 0,     0.000,     0.000, 1,'            '
   31,'1 ',1,   1,   1,    17.520,     3.706,     0.000,     0.000,     0.000,     0.000,   1,1, 0,     0.000,     0.000, 1,'            '
   33,'1 ',1,   1,   1,    33.400,     6.850,     0.000,     0.000,     0.000,     0.000,   1,1, 0,     0.000,     0.000, 1,'            '
   34,'1 ',1,   1,   1,    19.360,     3.965,     0.000,     0.000,     0.000,     0.000,   1,1, 0,     0.000,     0.000, 1,'            '
   35,'1 ',1,   1,   1,    41.620,     8.497,     0.000,     0.000,     0.000,     0.000,   1,1, 0,     0.000,     0.000, 1,'            '
   36,'1 ',1,   1,   1,    39.600,     8.624,     0.000,     0.000,     0.000,     0.000,   1,1, 0,     0.000,     0.000, 1,'            '
   37,'1 ',1,   1,   1,    42.100,     8.577,     0.000,     0.000,     0.000,     0.000,   1,1, 0,     0.000,     0.000, 1,'            '
   38,'1 ',1,   1,   1,    34.500,     7.070,     0.000,     0.000,     0.000,     0.000,   1,1, 0,     0.000,     0.000, 1,'            '
   40,'1 ',1,   1,   1,    50.160,    10.289,     0.000,     0.000,     0.000,     0.000,   1,1, 0,     0.000,     0.000, 1,'            '
   41,'1 ',1,   1,   1,    27.850,     5.804,     0.000,     0.000,     0.000,     0.000,   1,1, 0,     0.000,     0.000, 1,'            '
   42,'1 ',1,   1,   1,    40.240,     8.311,     0.000,     0.000,     0.000,     0.000,   1,1, 0,     0.000,     0.000, 1,'            '
   43,'1 ',1,   1,   1,    35.780,     7.407,     0.000,     0.000,     0.000,     0.000,   1,1, 0,     0.000,     0.000, 1,'            '
   44,'1 ',1,   1,   1,    18.880,     4.175,     0.000,     0.000,     0.000,     0.000,   1,1, 0,     0.000,     0.000, 1,'            '
   45,'1 ',1,   1,   1,    30.310,     6.265,     0.000,     0.000,     0.000,     0.000,   1,1, 0,     0.000,     0.000, 1,'            '
   47,'1 ',1,   1,   1,    55.600,    13.145,     0.000,     0.000,     0.000,     0.000,   1,1, 0,     0.000,     0.000, 1,'            '
   50,'1 ',1,   1,   1,    13.820,     2.853,     0.000,     0.000,     0.000,     0.000,   1,1, 0,     0.000,     0.000, 1,'            '
   51,'1 ',1,   1,   1,    20.780,     4.245,     0.000,     0.000,     0.000,     0.000,   1,1, 0,     0.000,     0.000, 1,'            '
   52,'1 ',1,   1,   1,     7.590,     2.115,     0.000,     0.000,     0.000,     0.000,   1,1, 0,     0.000,     0.000, 1,'            '
   53,'1 ',1,   1,   1,     1.070,     0.224,     0.000,     0.000,     0.000,     0.000,   1,1, 0,     0.000,     0.000, 1,'            '
   54,'1 ',1,   1,   1,     0.570,     0.120,     0.000,     0.000,     0.000,     0.000,   1,1, 0,     0.000,     0.000, 1,'            '
   55,'1 ',1,   1,   1,    21.060,     4.302,     0.000,     0.000,     0.000,     0.000,   1,1, 0,     0.000,     0.000, 1,'            '
   56,'1 ',1,   1,   1,    40.880,     8.352,     0.000,     0.000,     0.000,     0.000,   1,1, 0,     0.000,     0.000, 1,'            '
   57,'1 ',1,   1,   1,    35.520,     7.327,     0.000,     0.000,     0.000,     0.000,   1,1, 0,     0.000,     0.000, 1,'            '
   59,'1 ',1,   1,   1,    34.610,     7.344,     0.000,     0.000,     0.000,     0.000,   1,1, 0,     0.000,     0.000, 1,'            '
   60,'1 ',1,   1,   1,    13.040,     2.745,     0.000,     0.000,     0.000,     0.000,   1,1, 0,     0.000,     0.000, 1,'            '
   61,'1 ',1,   1,   1,    28.170,     5.808,     0.000,     0.000,     0.000,     0.000,   1,1, 0,     0.000,     0.000, 1,'            '
   62,'1 ',1,   1,   1,    23.450,     4.768,     0.000,     0.000,     0.000,     0.000,   1,1, 0,     0.000,     0.000, 1,'            '
   63,'1 ',1,   1,   1,    31.300,     7.503,     0.000,     0.000,     0.000,     0.000,   1,1, 0,     0.000,     0.000, 1,'            '
   64,'1 ',1,   1,   1,    38.780,     7.980,     0.000,     0.000,     0.000,     0.000,   1,1, 0,     0.000,     0.000, 1,'            '
   65,'1 ',1,   1,   1,    34.680,     7.787,     0.000,     0.000,     0.000,     0.000,   1,1, 0,     0.000,     0.000, 1,'            '
   66,'1 ',1,   1,   1,    23.090,     4.763,     0.000,     0.000,     0.000,     0.000,   1,1, 0,     0.000,     0.000, 1,'            '
   67,'1 ',1,   1,   1,    28.480,     5.835,     0.000,     0.000,     0.000,     0.000,   1,1, 0,     0.000,     0.000, 1,'            '
   69,'1 ',1,   1,   1,    45.460,     9.348,     0.000,     0.000,     0.000,     0.000,   1,1, 0,     0.000,     0.000, 1,'            '
   71,'1 ',1,   1,   1,    41.780,     9.607,     0.000,     0.000,     0.000,     0.000,   1,1, 0,     0.000,     0.000, 1,'            '
   72,'1 ',1,   1,   1,    25.760,     5.288,     0.000,     0.000,     0.000,     0.000,   1,1, 0,     0.000,     0.000, 1,'            '
   74,'1 ',1,   1,   1,    55.940,    12.389,     0.000,     0.000,     0.000,     0.000,   1,1, 0,     0.000,     0.000, 1,'            '
   75,'1 ',1,   1,   1,    32.210,     7.310,     0.000,     0.000,     0.000,     0.000,   1,1, 0,     0.000,     0.000, 1,'            '
   76,'1 ',1,   1,   1,    26.320,     7.100,     0.000,     0.000,     0.000,     0.000,   1,1, 0,     0.000,     0.000, 1,'            '
   77,'1 ',1,   1,   1,    24.740,     5.786,     0.000,     0.000,     0.000,     0.000,   1,1, 0,     0.000,     0.000, 1,'            '
   78,'1 ',1,   1,   1,    23.900,     5.118,     0.000,     0.000,     0.000,     0.000,   1,1, 0,     0.000,     0.000, 1,'            '
   79,'1 ',1,   1,   1,    30.440,     6.516,     0.000,     0.000,     0.000,     0.000,   1,1, 0,     0.000,     0.000, 1,'            '
   80,'1 ',1,   1,   1,    14.570,     3.288,     0.000,     0.000,     0.000,     0.000,   1,1, 0,     0.000,     0.000, 1,'            '
   81,'1 ',1,   1,   1,     8.010,     1.636,     0.000,     0.000,     0.000,     0.000,   1,1, 0,     0.000,     0.000, 1,'            '
   82,'1 ',1,   1,   1,    24.650,     5.068,     0.000,     0.000,     0.000,     0.000,   1,1, 0,     0.000,     0.000, 1,'            '
   83,'1 ',1,   1,   1,     6.410,     2.104,     0.000,     0.000,     0.000,     0.000,   1,1, 0,     0.000,     0.000, 1,'            '
   84,'1 ',1,   1,   1,    13.760,     3.040,     0.000,     0.000,     0.000,     0.000,   1,1, 0,     0.000,     0.000, 1,'            '
   85,'1 ',1,   1,   1,     9.480,     2.091,     0.000,     0.000,     0.000,     0.000,   1,1, 0,     0.000,     0.000, 1,'            '
   86,'1 ',1,   1,   1,     9.630,     2.108,     0.000,     0.000,     0.000,     0.000,   1,1, 0,     0.000,     0.000, 1,'            '
   88,'1 ',1,   1,   1,    13.570,     2.963,     0.000,     0.000,     0.000,     0.000,   1,1, 0,     0.000,     0.000, 1,'            '
   89,'1 ',1,   1,   1,     5.470,     1.227,     0.000,     0.000,     0.000,     0.000,   1,1, 0,     0.000,     0.000, 1,'            '
   90,'1 ',1,   1,   1,     8.110,     1.745,     0.000,     0.000,     0.000,     0.000,   1,1, 0,     0.000,     0.000, 1,'            '
   91,'1 ',1,   1,   1,    14.090,     3.167,     0.000,     0.000,     0.000,     0.000,   1,1, 0,     0.000,     0.000, 1,'            '
   92,'1 ',1,   1,   1,    24.970,     5.379,     0.000,     0.000,     0.000,     0.000,   1,1, 0,     0.000,     0.000, 1,'            '
   93,'1 ',1,   1,   1,    11.380,     2.337,     0.000,     0.000,     0.000,     0.000,   1,1, 0,     0.000,     0.000, 1,'            '
   95,'1 ',1,   1,   1,    32.750,     6.881,     0.000,     0.000,     0.000,     0.000,   1,1, 0,     0.000,     0.000, 1,'            '
   96,'1 ',1,   1,   1,    11.190,     2.352,     0.000,     0.000,     0.000,     0.000,   1,1, 0,     0.000,     0.000, 1,'            '
   97,'1 ',1,   1,   1,    12.090,     2.546,     0.000,     0.000,     0.000,     0.000,   1,1, 0,     0.000,     0.000, 1,'            '
   98,'1 ',1,   1,   1,    23.110,     4.836,     0.000,     0.000,     0.000,     0.000,   1,1, 0,     0.000,     0.000, 1,'            '
   99,'1 ',1,   1,   1,    15.350,     3.186,     0.000,     0.000,     0.000,     0.000,   1,1, 0,     0.000,     0.000, 1,'            '
  100,'1 ',1,   1,   1,    22.290,     4.550,     0.000,     0.000,     0.000,     0.000,   1,1, 0,     0.000,     0.000, 1,'            '
  102,'1 ',1,   1,   1,    29.270,     6.047,     0.000,     0.000,     0.000,     0.000,   1,1, 0,     0.000,     0.000, 1,'            '
  103,'1 ',1,   1,   1,    16.730,     3.452,     0.000,     0.000,     0.000,     0.000,   1,1, 0,     0.000,     0.000, 1,'            '
  104,'1 ',1,   1,   1,     4.910,     1.023,     0.000,     0.000,     0.000,     0.000,   1,1, 0,     0.000,     0.000, 1,'            '
  105,'1 ',1,   1,   1,    15.780,     3.256,     0.000,     0.000,     0.000,     0.000,   1,1, 0,     0.000,     0.000, 1,'            '
  106,'1 ',1,   1,   1,    20.300,     4.306,     0.000,     0.000,     0.000,     0.000,   1,1, 0,     0.000,     0.000, 1,'            '
  107,'1 ',1,   1,   1,    20.720,     4.257,     0.000,     0.000,     0.000,     0.000,   1,1, 0,     0.000,     0.000, 1,'            '
  108,'1 ',1,   1,   1,    12.500,     2.568,     0.000,     0.000,     0.000,     0.000,   1,1, 0,     0.000,     0.000, 1,'            '
  109,'1 ',1,   1,   1,    11.060,     2.278,     0.000,     0.000,     0.000,     0.000,   1,1, 0,     0.000,     0.000, 1,'            '
  110,'1 ',1,   1,   1,    20.620,     4.256,     0.000,     0.000,     0.000,     0.000,   1,1, 0,     0.000,     0.000, 1,'            '
  111,'1 ',1,   1,   1,    17.070,     3.559,     0.000,     0.000,     0.000,     0.000,   1,1, 0,     0.000,     0.000, 1,'            '
  112,'1 ',1,   1,   1,    22.400,     4.666,     0.000,     0.000,     0.000,     0.000,   1,1, 0,     0.000,     0.000, 1,'            '
  113,'1 ',1,   1,   1,    28.660,     5.837,     0.000,     0.000,     0.000,     0.000,   1,1, 0,     0.000,     0.000, 1,'            '
  114,'1 ',1,   1,   1,    24.540,     5.032,     0.000,     0.000,     0.000,     0.000,   1,1, 0,     0.000,     0.000, 1,'            '
  115,'1 ',1,   1,   1,     7.580,     1.575,     0.000,     0.000,     0.000,     0.000,   1,1, 0,     0.000,     0.000, 1,'            '
  116,'1 ',1,   1,   1,    26.840,     5.547,     0.000,     0.000,     0.000,     0.000,   1,1, 0,     0.000,     0.000, 1,'            '
  117,'1 ',1,   1,   1,    29.550,     6.887,     0.000,     0.000,     0.000,     0.000,   1,1, 0,     0.000,     0.000, 1,'            '
  118,'1 ',1,   1,   1,    27.670,     5.737,     0.000,     0.000,     0.000,     0.000,   1,1, 0,     0.000,     0.000, 1,'            '
  119,'1 ',1,   1,   1,    45.320,    10.952,     0.000,     0.000,     0.000,     0.000,   1,1, 0,     0.000,     0.000, 1,'            '
  120,'1 ',1,   1,   1,    50.180,    10.868,     0.000,     0.000,     0.000,     0.000,   1,1, 0,     0.000,     0.000, 1,'            '
  121,'1 ',1,   1,   1,    50.980,    10.849,     0.000,     0.000,     0.000,     0.000,   1,1, 0,     0.000,     0.000, 1,'            '
  122,'1 ',1,   1,   1,    83.160,    17.617,     0.000,     0.000,     0.000,     0.000,   1,1, 0,     0.000,     0.000, 1,'            '
  123,'1 ',1,   1,   1,    33.910,     6.946,     0.000,     0.000,     0.000,     0.000,   1,1, 0,     0.000,     0.000, 1,'            '
  124,'1 ',1,   1,   1,    40.260,     8.772,     0.000,     0.000,     0.000,     0.000,   1,1, 0,     0.000,     0.000, 1,'            '
  125,'1 ',1,   1,   1,    29.930,     6.278,     0.000,     0.000,     0.000,     0.000,   1,1, 0,     0.000,     0.000, 1,'            '
  126,'1 ',1,   1,   1,    37.680,     8.175,     0.000,     0.000,     0.000,     0.000,   1,1, 0,     0.000,     0.000, 1,'            '
  127,'1 ',1,   1,   1,    21.190,     4.315,     0.000,     0.000,     0.000,     0.000,   1,1, 0,     0.000,     0.000, 1,'            '
  128,'1 ',1,   1,   1,    44.900,     9.378,     0.000,     0.000,     0.000,     0.000,   1,1, 0,     0.000,     0.000, 1,'            '
  129,'1 ',1,   1,   1,    23.120,     4.722,     0.000,     0.000,     0.000,     0.000,   1,1, 0,     0.000,     0.000, 1,'            '
  130,'1 ',1,   1,   1,    32.180,     6.610,     0.000,     0.000,     0.000,     0.000,   1,1, 0,     0.000,     0.000, 1,'            '
  132,'1 ',1,   1,   1,    28.420,     5.816,     0.000,     0.000,     0.000,     0.000,   1,1, 0,     0.000,     0.000, 1,'            '
  133,'1 ',1,   1,   1,    41.380,     8.418,     0.000,     0.000,     0.000,     0.000,   1,1, 0,     0.000,     0.000, 1,'            '
  134,'1 ',1,   1,   1,    22.750,     4.700,     0.000,     0.000,     0.000,     0.000,   1,1, 0,     0.000,     0.000, 1,'            '
  135,'1 ',1,   1,   1,    14.460,     2.971,     0.000,     0.000,     0.000,     0.000,   1,1, 0,     0.000,     0.000, 1,'            '
  136,'1 ',1,   1,   1,    12.220,     2.498,     0.000,     0.000,     0.000,     0.000,   1,1, 0,     0.000,     0.000, 1,'            '
  138,'1 ',1,   1,   1,    48.420,    10.172,     0.000,     0.000,     0.000,     0.000,   1,1, 0,     0.000,     0.000, 1,'            '
  139,'1 ',1,   1,   1,    24.580,     5.008,     0.000,     0.000,     0.000,     0.000,   1,1, 0,     0.000,     0.000, 1,'            '
  140,'1 ',1,   1,   1,    41.260,     8.590,     0.000,     0.000,     0.000,     0.000,   1,1, 0,     0.000,     0.000, 1,'            '
  141,'1 ',1,   1,   1,    25.260,     5.375,     0.000,     0.000,     0.000,     0.000,   1,1, 0,     0.000,     0.000, 1,'            '
  142,'1 ',1,   1,   1,    14.720,     3.421,     0.000,     0.000,     0.000,     0.000,   1,1, 0,     0.000,     0.000, 1,'            '
  143,'1 ',1,   1,   1,    43.660,     9.488,     0.000,     0.000,     0.000,     0.000,   1,1, 0,     0.000,     0.000, 1,'            '
  144,'1 ',1,   1,   1,    23.140,     5.065,     0.000,     0.000,     0.000,     0.000,   1,1, 0,     0.000,     0.000, 1,'            '
  145,'1 ',1,   1,   1,    42.120,     8.838,     0.000,     0.000,     0.000,     0.000,   1,1, 0,     0.000,     0.000, 1,'            '
  146,'1 ',1,   1,   1,    27.720,     7.079,     0.000,     0.000,     0.000,     0.000,   1,1, 0,     0.000,     0.000, 1,'            '
  148,'1 ',1,   1,   1,    39.640,     8.312,     0.000,     0.000,     0.000,     0.000,   1,1, 0,     0.000,     0.000, 1,'            '
  149,'1 ',1,   1,   1,    21.700,     4.450,     0.000,     0.000,     0.000,     0.000,   1,1, 0,     0.000,     0.000, 1,'            '
0 / END OF LOAD DATA, BEGIN FIXED SHUNT DATA
@!   I,'ID',STATUS,  GL,        BL
0 / END OF FIXED SHUNT DATA, BEGIN GENERATOR DATA
@!   I,'ID',      PG,        QG,        QT,        QB,     VS,    IREG,     MBASE,     ZR,         ZX,         RT,         XT,     GTAP,STAT, RMPCT,      PT,        PB,    O1,  F1,    O2,  F2,    O3,  F3,    O4,  F4,WMOD,  WPF
  151,'1 ',    33.351,     0.000,    13.824,    -1.764,1.04000,    0,    0,    43.200,   0.00000,   1.00000,   0.00000,   0.00000,1.00000,0,  100.0,    36.000,    16.217, 0,   1,1.0000,   0,1.0000,   0,1.0000,   0,1.0000,0, 1.0000
  151,'2 ',    33.450,    13.824,    13.824,    -1.764,1.04000,    0,    0,    43.200,   0.00000,   1.00000,   0.00000,   0.00000,1.00000,1,  100.0,    36.000,     5.063, 0,   1,1.0000,   0,1.0000,   0,1.0000,   0,1.0000,0, 1.0000
  151,'3 ',    36.000,     0.000,    13.824,    -1.764,1.04000,    0,    0,    43.200,   0.00000,   1.00000,   0.00000,   0.00000,1.00000,0,  100.0,    36.000,    16.159, 0,   1,1.0000,   0,1.0000,   0,1.0000,   0,1.0000,0, 1.0000
  152,'1 ',     5.000,     0.000,     2.545,    -0.555,1.04000,    0,    0,     6.000,   0.00000,   1.00000,   0.00000,   0.00000,1.00000,0,  100.0,     5.000,     1.301, 0,   1,1.0000,   0,1.0000,   0,1.0000,   0,1.0000,0, 1.0000
  153,'1 ',     5.000,     0.000,     2.545,    -0.555,1.04000,    0,    0,     6.000,   0.00000,   1.00000,   0.00000,   0.00000,1.00000,0,  100.0,     5.000,     1.886, 0,   1,1.0000,   0,1.0000,   0,1.0000,   0,1.0000,0, 1.0000
  154,'1 ',     5.000,     0.000,     2.545,    -0.555,1.04000,    0,    0,     6.000,   0.00000,   1.00000,   0.00000,   0.00000,1.00000,0,  100.0,     5.000,     1.366, 0,   1,1.0000,   0,1.0000,   0,1.0000,   0,1.0000,0, 1.0000
  156,'1 ',     5.948,     3.456,     3.456,    -0.441,1.04000,    0,    0,    10.800,   0.00000,   1.00000,   0.00000,   0.00000,1.00000,1,  100.0,     9.000,     1.476, 0,   1,1.0000,   0,1.0000,   0,1.0000,   0,1.0000,0, 1.0000
  156,'2 ',     8.261,     3.456,     3.456,    -0.441,1.04000,    0,    0,    10.800,   0.00000,   1.00000,   0.00000,   0.00000,1.00000,1,  100.0,     9.000,     2.532, 0,   1,1.0000,   0,1.0000,   0,1.0000,   0,1.0000,0, 1.0000
  158,'1 ',    25.417,     0.000,    12.937,    -2.821,1.04000,    0,    0,    30.500,   0.00000,   1.00000,   0.00000,   0.00000,1.00000,0,  100.0,    25.417,     4.373, 0,   1,1.0000,   0,1.0000,   0,1.0000,   0,1.0000,0, 1.0000
  158,'2 ',    25.417,     0.000,    12.937,    -2.821,1.04000,    0,    0,    30.500,   0.00000,   1.00000,   0.00000,   0.00000,1.00000,0,  100.0,    25.417,     8.909, 0,   1,1.0000,   0,1.0000,   0,1.0000,   0,1.0000,0, 1.0000
  158,'3 ',    25.347,    12.937,    12.937,    -2.821,1.04000,    0,    0,    30.500,   0.00000,   1.00000,   0.00000,   0.00000,1.00000,1,  100.0,    25.417,     4.841, 0,   1,1.0000,   0,1.0000,   0,1.0000,   0,1.0000,0, 1.0000
  158,'4 ',    25.347,    12.937,    12.937,    -2.821,1.04000,    0,    0,    30.500,   0.00000,   1.00000,   0.00000,   0.00000,1.00000,1,  100.0,    25.417,     9.949, 0,   1,1.0000,   0,1.0000,   0,1.0000,   0,1.0000,0, 1.0000
  158,'5 ',    25.347,    12.937,    12.937,    -2.821,1.04000,    0,    0,    30.500,   0.00000,   1.00000,   0.00000,   0.00000,1.00000,1,  100.0,    25.417,     6.913, 0,   1,1.0000,   0,1.0000,   0,1.0000,   0,1.0000,0, 1.0000
  158,'6 ',    25.347,    12.937,    12.937,    -2.821,1.04000,    0,    0,    30.500,   0.00000,   1.00000,   0.00000,   0.00000,1.00000,1,  100.0,    25.417,    10.125, 0,   1,1.0000,   0,1.0000,   0,1.0000,   0,1.0000,0, 1.0000
  159,'1 ',     2.992,     1.527,     1.527,    -0.333,1.04000,    0,    0,     3.600,   0.00000,   1.00000,   0.00000,   0.00000,1.00000,1,  100.0,     3.000,     1.049, 0,   1,1.0000,   0,1.0000,   0,1.0000,   0,1.0000,0, 1.0000
  159,'2 ',     3.000,     0.000,     1.527,    -0.333,1.04000,    0,    0,     3.600,   0.00000,   1.00000,   0.00000,   0.00000,1.00000,0,  100.0,     3.000,     0.543, 0,   1,1.0000,   0,1.0000,   0,1.0000,   0,1.0000,0, 1.0000
  160,'1 ',     1.116,     0.000,     0.000,     0.000,1.04000,    0,    0,     1.680,   0.00000,   1.00000,   0.00000,   0.00000,1.00000,1,  100.0,     1.400,     0.647, 0,   1,1.0000,   0,1.0000,   0,1.0000,   0,1.0000,1, 1.0000
  161,'1 ',   115.559,    50.157,    59.383,   -12.950,1.04000,    0,    0,   140.000,   0.00000,   1.00000,   0.00000,   0.00000,1.00000,1,  100.0,   116.667,    24.062, 0,   1,1.0000,   0,1.0000,   0,1.0000,   0,1.0000,0, 1.0000
  161,'2 ',   115.727,    50.157,    59.383,   -12.950,1.04000,    0,    0,   140.000,   0.00000,   1.00000,   0.00000,   0.00000,1.00000,1,  100.0,   116.667,    38.108, 0,   1,1.0000,   0,1.0000,   0,1.0000,   0,1.0000,0, 1.0000
  161,'3 ',   115.778,    50.157,    59.383,   -12.950,1.04000,    0,    0,   140.000,   0.00000,   1.00000,   0.00000,   0.00000,1.00000,1,  100.0,   116.667,    42.351, 0,   1,1.0000,   0,1.0000,   0,1.0000,   0,1.0000,0, 1.0000
  161,'4 ',   115.533,    50.157,    59.383,   -12.950,1.04000,    0,    0,   140.000,   0.00000,   1.00000,   0.00000,   0.00000,1.00000,1,  100.0,   116.667,    21.849, 0,   1,1.0000,   0,1.0000,   0,1.0000,   0,1.0000,0, 1.0000
  161,'5 ',   115.621,    50.157,    59.383,   -12.950,1.04000,    0,    0,   140.000,   0.00000,   1.00000,   0.00000,   0.00000,1.00000,1,  100.0,   116.667,    29.206, 0,   1,1.0000,   0,1.0000,   0,1.0000,   0,1.0000,0, 1.0000
  161,'6 ',   115.526,    50.157,    59.383,   -12.950,1.04000,    0,    0,   140.000,   0.00000,   1.00000,   0.00000,   0.00000,1.00000,1,  100.0,   116.667,    21.266, 0,   1,1.0000,   0,1.0000,   0,1.0000,   0,1.0000,0, 1.0000
  163,'1 ',   154.575,    78.895,    78.895,   -17.205,1.04000,    0,    0,   186.000,   0.00000,   1.00000,   0.00000,   0.00000,1.00000,1,  100.0,   155.000,    39.166, 0,   1,1.0000,   0,1.0000,   0,1.0000,   0,1.0000,0, 1.0000
  163,'2 ',   154.575,    78.895,    78.895,   -17.205,1.04000,    0,    0,   186.000,   0.00000,   1.00000,   0.00000,   0.00000,1.00000,1,  100.0,   155.000,    19.746, 0,   1,1.0000,   0,1.0000,   0,1.0000,   0,1.0000,0, 1.0000
  163,'3 ',   154.575,    78.895,    78.895,   -17.205,1.04000,    0,    0,   186.000,   0.00000,   1.00000,   0.00000,   0.00000,1.00000,1,  100.0,   155.000,    70.429, 0,   1,1.0000,   0,1.0000,   0,1.0000,   0,1.0000,0, 1.0000
  163,'4 ',   138.845,     0.000,    78.895,   -17.205,1.04000,    0,    0,   186.000,   0.00000,   1.00000,   0.00000,   0.00000,1.00000,0,  100.0,   155.000,    34.876, 0,   1,1.0000,   0,1.0000,   0,1.0000,   0,1.0000,0, 1.0000
  163,'5 ',   154.575,    78.895,    78.895,   -17.205,1.04000,    0,    0,   186.000,   0.00000,   1.00000,   0.00000,   0.00000,1.00000,1,  100.0,   155.000,    73.135, 0,   1,1.0000,   0,1.0000,   0,1.0000,   0,1.0000,0, 1.0000
  163,'6 ',   154.575,    78.895,    78.895,   -17.205,1.04000,    0,    0,   186.000,   0.00000,   1.00000,   0.00000,   0.00000,1.00000,1,  100.0,   155.000,    22.331, 0,   1,1.0000,   0,1.0000,   0,1.0000,   0,1.0000,0, 1.0000
  165,'1 ',   205.668,    62.652,   104.973,   -22.892,1.04000,    0,    0,   247.480,   0.00000,   1.00000,   0.00000,   0.00000,1.00000,1,  100.0,   206.233,    88.328, 0,   1,1.0000,   0,1.0000,   0,1.0000,   0,1.0000,0, 1.0000
  165,'2 ',   205.668,    62.652,   104.973,   -22.892,1.04000,    0,    0,   247.480,   0.00000,   1.00000,   0.00000,   0.00000,1.00000,1,  100.0,   206.233,    28.285, 0,   1,1.0000,   0,1.0000,   0,1.0000,   0,1.0000,0, 1.0000
  165,'3 ',   202.883,    62.652,   104.973,   -22.892,1.04000,    0,    0,   247.480,   0.00000,   1.00000,   0.00000,   0.00000,1.00000,1,  100.0,   206.233,    89.137, 0,   1,1.0000,   0,1.0000,   0,1.0000,   0,1.0000,0, 1.0000
  169,'1 ',    29.918,     0.000,     0.000,     0.000,1.04000,    0,    0,    36.000,   0.00000,   1.00000,   0.00000,   0.00000,1.00000,1,  100.0,    30.000,     8.832, 0,   1,1.0000,   0,1.0000,   0,1.0000,   0,1.0000,1, 1.0000
  170,'1 ',   197.789,   -14.656,   100.952,   -22.015,1.04000,    0,    0,   238.000,   0.00000,   1.00000,   0.00000,   0.00000,1.00000,1,  100.0,   198.333,    43.193, 0,   1,1.0000,   0,1.0000,   0,1.0000,   0,1.0000,0, 1.0000
  170,'2 ',   197.789,   -14.656,   100.952,   -22.015,1.04000,    0,    0,   238.000,   0.00000,   1.00000,   0.00000,   0.00000,1.00000,1,  100.0,   198.333,    40.668, 0,   1,1.0000,   0,1.0000,   0,1.0000,   0,1.0000,0, 1.0000
  170,'3 ',    91.558,   -14.656,   100.952,   -22.015,1.04000,    0,    0,   238.000,   0.00000,   1.00000,   0.00000,   0.00000,1.00000,1,  100.0,   198.333,    65.098, 0,   1,1.0000,   0,1.0000,   0,1.0000,   0,1.0000,0, 1.0000
  172,'1 ',   212.416,    -5.840,   108.417,   -23.643,1.04000,    0,    0,   255.600,   0.00000,   1.00000,   0.00000,   0.00000,1.00000,1,  100.0,   213.000,    50.321, 0,   1,1.0000,   0,1.0000,   0,1.0000,   0,1.0000,0, 1.0000
  172,'2 ',   172.242,    -5.840,   108.417,   -23.643,1.04000,    0,    0,   255.600,   0.00000,   1.00000,   0.00000,   0.00000,1.00000,1,  100.0,   213.000,    43.845, 0,   1,1.0000,   0,1.0000,   0,1.0000,   0,1.0000,0, 1.0000
  172,'3 ',   171.687,    -5.840,   108.417,   -23.643,1.04000,    0,    0,   255.600,   0.00000,   1.00000,   0.00000,   0.00000,1.00000,1,  100.0,   213.000,    67.351, 0,   1,1.0000,   0,1.0000,   0,1.0000,   0,1.0000,0, 1.0000
0 / END OF GENERATOR DATA, BEGIN BRANCH DATA
@!   I,     J,'CKT',     R,          X,         B,                    'N A M E'                 ,   RATE1,   RATE2,   RATE3,   RATE4,   RATE5,   RATE6,   RATE7,   RATE8,   RATE9,  RATE10,  RATE11,  RATE12,    GI,       BI,       GJ,       BJ,STAT,MET,  LEN,  O1,  F1,    O2,  F2,    O3,  F3,    O4,  F4
     1,    80,'1 ',6.74745E-3,1.29973E-2,1.45116E-2,'                                        ',   44.66,    0.00,    0.00,    0.00,    0.00,    0.00,    0.00,    0.00,    0.00,    0.00,    0.00,    0.00,  0.00000,  0.00000,  0.00000,  0.00000, 1,1,   6.15,   1,1.0000,   0,1.0000,   0,1.0000,   0,1.0000
     5,     2,'2 ',8.64208E-3,1.68171E-2,1.89482E-3,'                                        ',   72.33,    0.00,    0.00,    0.00,    0.00,    0.00,    0.00,    0.00,    0.00,    0.00,    0.00,    0.00,  0.00000,  0.00000,  0.00000,  0.00000, 1,1,   2.44,   1,1.0000,   0,1.0000,   0,1.0000,   0,1.0000
     2,   169,'1 ',3.00000E-3,3.00000E-2,2.00000E-2,'                                        ',   80.00,    0.00,    0.00,    0.00,    0.00,    0.00,    0.00,    0.00,    0.00,    0.00,    0.00,    0.00,  0.00000,  0.00000,  0.00000,  0.00000, 1,1,   0.00,   1,1.0000,   0,1.0000,   0,1.0000,   0,1.0000
     3,     4,'1 ',1.50154E-2,3.86577E-2,3.26196E-3,'                                        ',   58.48,    0.00,    0.00,    0.00,    0.00,    0.00,    0.00,    0.00,    0.00,    0.00,    0.00,    0.00,  0.00000,  0.00000,  0.00000,  0.00000, 1,1,   4.58,   1,1.0000,   0,1.0000,   0,1.0000,   0,1.0000
   164,     3,'1 ',1.77305E-2,4.27916E-2,1.45444E-3,'                                        ',   63.80,    0.00,    0.00,    0.00,    0.00,    0.00,    0.00,    0.00,    0.00,    0.00,    0.00,    0.00,  0.00000,  0.00000,  0.00000,  0.00000, 1,1,   3.60,   1,1.0000,   0,1.0000,   0,1.0000,   0,1.0000
     4,   145,'1 ',1.26046E-2,3.69284E-2,7.25858E-3,'                                        ',   78.08,    0.00,    0.00,    0.00,    0.00,    0.00,    0.00,    0.00,    0.00,    0.00,    0.00,    0.00,  0.00000,  0.00000,  0.00000,  0.00000, 1,1,   7.22,   1,1.0000,   0,1.0000,   0,1.0000,   0,1.0000
     4,   145,'2 ',1.26046E-2,3.69284E-2,7.25858E-3,'                                        ',   78.08,    0.00,    0.00,    0.00,    0.00,    0.00,    0.00,    0.00,    0.00,    0.00,    0.00,    0.00,  0.00000,  0.00000,  0.00000,  0.00000, 1,1,   7.22,   1,1.0000,   0,1.0000,   0,1.0000,   0,1.0000
     4,   145,'3 ',1.26046E-2,3.69284E-2,7.25858E-3,'                                        ',   78.08,    0.00,    0.00,    0.00,    0.00,    0.00,    0.00,    0.00,    0.00,    0.00,    0.00,    0.00,  0.00000,  0.00000,  0.00000,  0.00000, 1,1,   7.22,   1,1.0000,   0,1.0000,   0,1.0000,   0,1.0000
     4,   164,'1 ',5.33111E-3,1.74798E-2,1.06190E-3,'                                        ',   90.00,    0.00,    0.00,    0.00,    0.00,    0.00,    0.00,    0.00,    0.00,    0.00,    0.00,    0.00,  0.00000,  0.00000,  0.00000,  0.00000, 1,1,   1.96,   1,1.0000,   0,1.0000,   0,1.0000,   0,1.0000
     4,   164,'2 ',5.33111E-3,1.74798E-2,1.06190E-3,'                                        ',   90.00,    0.00,    0.00,    0.00,    0.00,    0.00,    0.00,    0.00,    0.00,    0.00,    0.00,    0.00,  0.00000,  0.00000,  0.00000,  0.00000, 1,1,   1.96,   1,1.0000,   0,1.0000,   0,1.0000,   0,1.0000
     4,   164,'3 ',5.33111E-3,1.74798E-2,1.06190E-3,'                                        ',   90.00,    0.00,    0.00,    0.00,    0.00,    0.00,    0.00,    0.00,    0.00,    0.00,    0.00,    0.00,  0.00000,  0.00000,  0.00000,  0.00000, 1,1,   1.96,   1,1.0000,   0,1.0000,   0,1.0000,   0,1.0000
     5,    88,'1 ',1.41438E-2,3.39963E-2,7.65093E-4,'                                        ',   72.50,    0.00,    0.00,    0.00,    0.00,    0.00,    0.00,    0.00,    0.00,    0.00,    0.00,    0.00,  0.00000,  0.00000,  0.00000,  0.00000, 1,1,   2.33,   1,1.0000,   0,1.0000,   0,1.0000,   0,1.0000
     6,    88,'1 ',1.65969E-2,4.92425E-2,2.07682E-3,'                                        ',   50.26,    0.00,    0.00,    0.00,    0.00,    0.00,    0.00,    0.00,    0.00,    0.00,    0.00,    0.00,  0.00000,  0.00000,  0.00000,  0.00000, 1,1,   4.38,   1,1.0000,   0,1.0000,   0,1.0000,   0,1.0000
     6,    89,'1 ',1.86273E-2,5.45039E-2,3.02888E-3,'                                        ',   52.81,    0.00,    0.00,    0.00,    0.00,    0.00,    0.00,    0.00,    0.00,    0.00,    0.00,    0.00,  0.00000,  0.00000,  0.00000,  0.00000, 1,1,   5.69,   1,1.0000,   0,1.0000,   0,1.0000,   0,1.0000
    11,     7,'1 ',1.73659E-2,4.10018E-2,4.02422E-3,'                                        ',   72.86,    0.00,    0.00,    0.00,    0.00,    0.00,    0.00,    0.00,    0.00,    0.00,    0.00,    0.00,  0.00000,  0.00000,  0.00000,  0.00000, 1,1,   5.64,   1,1.0000,   0,1.0000,   0,1.0000,   0,1.0000
    11,     7,'2 ',1.73659E-2,4.10018E-2,4.02422E-3,'                                        ',   72.86,    0.00,    0.00,    0.00,    0.00,    0.00,    0.00,    0.00,    0.00,    0.00,    0.00,    0.00,  0.00000,  0.00000,  0.00000,  0.00000, 1,1,   5.64,   1,1.0000,   0,1.0000,   0,1.0000,   0,1.0000
    11,     7,'3 ',1.73659E-2,4.10018E-2,4.02422E-3,'                                        ',   72.86,    0.00,    0.00,    0.00,    0.00,    0.00,    0.00,    0.00,    0.00,    0.00,    0.00,    0.00,  0.00000,  0.00000,  0.00000,  0.00000, 1,1,   5.64,   1,1.0000,   0,1.0000,   0,1.0000,   0,1.0000
     7,   125,'1 ',1.17764E-2,3.20954E-2,8.86781E-4,'                                        ',   66.39,    0.00,    0.00,    0.00,    0.00,    0.00,    0.00,    0.00,    0.00,    0.00,    0.00,    0.00,  0.00000,  0.00000,  0.00000,  0.00000, 1,1,   2.32,   1,1.0000,   0,1.0000,   0,1.0000,   0,1.0000
     7,   126,'1 ',1.16269E-2,3.30128E-2,3.11788E-3,'                                        ',   63.93,    0.00,    0.00,    0.00,    0.00,    0.00,    0.00,    0.00,    0.00,    0.00,    0.00,    0.00,  0.00000,  0.00000,  0.00000,  0.00000, 1,1,   4.70,   1,1.0000,   0,1.0000,   0,1.0000,   0,1.0000
     7,   126,'2 ',1.16269E-2,3.30128E-2,3.11788E-3,'                                        ',   63.93,    0.00,    0.00,    0.00,    0.00,    0.00,    0.00,    0.00,    0.00,    0.00,    0.00,    0.00,  0.00000,  0.00000,  0.00000,  0.00000, 1,1,   4.70,   1,1.0000,   0,1.0000,   0,1.0000,   0,1.0000
     7,   148,'1 ',5.50883E-3,1.67186E-2,4.66767E-3,'                                        ',   75.00,    0.00,    0.00,    0.00,    0.00,    0.00,    0.00,    0.00,    0.00,    0.00,    0.00,    0.00,  0.00000,  0.00000,  0.00000,  0.00000, 1,1,   3.96,   1,1.0000,   0,1.0000,   0,1.0000,   0,1.0000
     8,     9,'1 ',1.00000E-2,3.00000E-2,6.00000E-4,'                                        ',   66.00,    0.00,    0.00,    0.00,    0.00,    0.00,    0.00,    0.00,    0.00,    0.00,    0.00,    0.00,  0.00000,  0.00000,  0.00000,  0.00000, 1,1,   0.00,   1,1.0000,   0,1.0000,   0,1.0000,   0,1.0000
     8,    44,'1 ',1.07752E-2,2.70292E-2,4.97889E-3,'                                        ',   85.00,    0.00,    0.00,    0.00,    0.00,    0.00,    0.00,    0.00,    0.00,    0.00,    0.00,    0.00,  0.00000,  0.00000,  0.00000,  0.00000, 1,1,   5.14,   1,1.0000,   0,1.0000,   0,1.0000,   0,1.0000
     8,   123,'1 ',6.92516E-3,1.35816E-2,2.67255E-3,'                                        ',   61.85,    0.00,    0.00,    0.00,    0.00,    0.00,    0.00,    0.00,    0.00,    0.00,    0.00,    0.00,  0.00000,  0.00000,  0.00000,  0.00000, 1,1,   2.74,   1,1.0000,   0,1.0000,   0,1.0000,   0,1.0000
     8,   123,'2 ',6.92500E-3,1.35820E-2,2.67300E-3,'                                        ',   61.85,    0.00,    0.00,    0.00,    0.00,    0.00,    0.00,    0.00,    0.00,    0.00,    0.00,    0.00,  0.00000,  0.00000,  0.00000,  0.00000, 1,1,   2.74,   1,1.0000,   0,1.0000,   0,1.0000,   0,1.0000
     9,    10,'1 ',1.20650E-2,2.99910E-2,6.13000E-4,'                                        ',   90.00,    0.00,    0.00,    0.00,    0.00,    0.00,    0.00,    0.00,    0.00,    0.00,    0.00,    0.00,  0.00000,  0.00000,  0.00000,  0.00000, 1,1,   1.95,   1,1.0000,   0,1.0000,   0,1.0000,   0,1.0000
     9,    42,'1 ',1.78835E-2,4.36047E-2,7.52404E-3,'                                        ',   60.45,    0.00,    0.00,    0.00,    0.00,    0.00,    0.00,    0.00,    0.00,    0.00,    0.00,    0.00,  0.00000,  0.00000,  0.00000,  0.00000, 1,1,   8.15,   1,1.0000,   0,1.0000,   0,1.0000,   0,1.0000
    10,   162,'1 ',3.13435E-2,4.66094E-2,2.00569E-3,'                                        ',   67.46,    0.00,    0.00,    0.00,    0.00,    0.00,    0.00,    0.00,    0.00,    0.00,    0.00,    0.00,  0.00000,  0.00000,  0.00000,  0.00000, 1,1,   3.99,   1,1.0000,   0,1.0000,   0,1.0000,   0,1.0000
    10,   162,'2 ',3.13435E-2,4.66094E-2,2.00569E-3,'                                        ',   67.46,    0.00,    0.00,    0.00,    0.00,    0.00,    0.00,    0.00,    0.00,    0.00,    0.00,    0.00,  0.00000,  0.00000,  0.00000,  0.00000, 1,1,   3.99,   1,1.0000,   0,1.0000,   0,1.0000,   0,1.0000
    11,   164,'1 ',1.12606E-2,2.37382E-2,5.57133E-3,'                                        ',   73.68,    0.00,    0.00,    0.00,    0.00,    0.00,    0.00,    0.00,    0.00,    0.00,    0.00,    0.00,  0.00000,  0.00000,  0.00000,  0.00000, 1,1,   4.75,   1,1.0000,   0,1.0000,   0,1.0000,   0,1.0000
    11,   164,'2 ',1.12606E-2,2.37382E-2,5.57133E-3,'                                        ',   73.68,    0.00,    0.00,    0.00,    0.00,    0.00,    0.00,    0.00,    0.00,    0.00,    0.00,    0.00,  0.00000,  0.00000,  0.00000,  0.00000, 1,1,   4.75,   1,1.0000,   0,1.0000,   0,1.0000,   0,1.0000
    11,   164,'3 ',1.12606E-2,2.37382E-2,5.57133E-3,'                                        ',   73.68,    0.00,    0.00,    0.00,    0.00,    0.00,    0.00,    0.00,    0.00,    0.00,    0.00,    0.00,  0.00000,  0.00000,  0.00000,  0.00000, 1,1,   4.75,   1,1.0000,   0,1.0000,   0,1.0000,   0,1.0000
    52,    12,'1 ',1.79663E-2,3.89133E-2,1.77321E-3,'                                        ',   53.39,    0.00,    0.00,    0.00,    0.00,    0.00,    0.00,    0.00,    0.00,    0.00,    0.00,    0.00,  0.00000,  0.00000,  0.00000,  0.00000, 1,1,   3.19,   1,1.0000,   0,1.0000,   0,1.0000,   0,1.0000
    12,   126,'1 ',1.10708E-2,3.44323E-2,1.17451E-2,'                                        ',   51.71,    0.00,    0.00,    0.00,    0.00,    0.00,    0.00,    0.00,    0.00,    0.00,    0.00,    0.00,  0.00000,  0.00000,  0.00000,  0.00000, 1,1,   8.99,   1,1.0000,   0,1.0000,   0,1.0000,   0,1.0000
    54,    13,'1 ',3.68587E-2,8.40436E-2,3.76763E-3,'                                        ',   85.00,    0.00,    0.00,    0.00,    0.00,    0.00,    0.00,    0.00,    0.00,    0.00,    0.00,    0.00,  0.00000,  0.00000,  0.00000,  0.00000, 1,1,   8.50,   1,1.0000,   0,1.0000,   0,1.0000,   0,1.0000
    13,   166,'1 ',1.96220E-2,5.16441E-2,1.74623E-3,'                                        ',   56.65,    0.00,    0.00,    0.00,    0.00,    0.00,    0.00,    0.00,    0.00,    0.00,    0.00,    0.00,  0.00000,  0.00000,  0.00000,  0.00000, 1,1,   4.58,   1,1.0000,   0,1.0000,   0,1.0000,   0,1.0000
    13,   166,'2 ',1.96220E-2,5.16441E-2,1.74623E-3,'                                        ',   56.65,    0.00,    0.00,    0.00,    0.00,    0.00,    0.00,    0.00,    0.00,    0.00,    0.00,    0.00,  0.00000,  0.00000,  0.00000,  0.00000, 1,1,   4.58,   1,1.0000,   0,1.0000,   0,1.0000,   0,1.0000
    14,    90,'1 ',1.44305E-2,3.57839E-2,8.04583E-3,'                                        ',   69.24,    0.00,    0.00,    0.00,    0.00,    0.00,    0.00,    0.00,    0.00,    0.00,    0.00,    0.00,  0.00000,  0.00000,  0.00000,  0.00000, 1,1,   7.70,   1,1.0000,   0,1.0000,   0,1.0000,   0,1.0000
    91,    14,'1 ',1.83810E-2,4.44233E-2,1.50941E-3,'                                        ',   59.58,    0.00,    0.00,    0.00,    0.00,    0.00,    0.00,    0.00,    0.00,    0.00,    0.00,    0.00,  0.00000,  0.00000,  0.00000,  0.00000, 1,1,   3.64,   1,1.0000,   0,1.0000,   0,1.0000,   0,1.0000
    14,   169,'2 ',9.35448E-3,1.85999E-2,1.69564E-3,'                                        ',   66.94,    0.00,    0.00,    0.00,    0.00,    0.00,    0.00,    0.00,    0.00,    0.00,    0.00,    0.00,  0.00000,  0.00000,  0.00000,  0.00000, 1,1,   2.41,   1,1.0000,   0,1.0000,   0,1.0000,   0,1.0000
    15,    18,'1 ',9.51470E-3,2.52039E-2,9.92109E-4,'                                        ',   68.73,    0.00,    0.00,    0.00,    0.00,    0.00,    0.00,    0.00,    0.00,    0.00,    0.00,    0.00,  0.00000,  0.00000,  0.00000,  0.00000, 1,1,   2.38,   1,1.0000,   0,1.0000,   0,1.0000,   0,1.0000
    15,    18,'2 ',9.51470E-3,2.52039E-2,9.92109E-4,'                                        ',   68.73,    0.00,    0.00,    0.00,    0.00,    0.00,    0.00,    0.00,    0.00,    0.00,    0.00,    0.00,  0.00000,  0.00000,  0.00000,  0.00000, 1,1,   2.38,   1,1.0000,   0,1.0000,   0,1.0000,   0,1.0000
    15,    36,'1 ',2.84848E-3,6.81501E-3,5.36035E-3,'                                        ',   85.00,    0.00,    0.00,    0.00,    0.00,    0.00,    0.00,    0.00,    0.00,    0.00,    0.00,    0.00,  0.00000,  0.00000,  0.00000,  0.00000, 1,1,   2.63,   1,1.0000,   0,1.0000,   0,1.0000,   0,1.0000
    22,    16,'1 ',9.36425E-3,2.36423E-2,2.06691E-3,'                                        ',   70.00,    0.00,    0.00,    0.00,    0.00,    0.00,    0.00,    0.00,    0.00,    0.00,    0.00,    0.00,  0.00000,  0.00000,  0.00000,  0.00000, 1,1,   3.12,   1,1.0000,   0,1.0000,   0,1.0000,   0,1.0000
    16,    31,'1 ',5.72551E-3,1.48411E-2,1.37826E-3,'                                        ',   72.49,    0.00,    0.00,    0.00,    0.00,    0.00,    0.00,    0.00,    0.00,    0.00,    0.00,    0.00,  0.00000,  0.00000,  0.00000,  0.00000, 1,1,   2.01,   1,1.0000,   0,1.0000,   0,1.0000,   0,1.0000
    16,    31,'2 ',5.72551E-3,1.48411E-2,1.37826E-3,'                                        ',   72.49,    0.00,    0.00,    0.00,    0.00,    0.00,    0.00,    0.00,    0.00,    0.00,    0.00,    0.00,  0.00000,  0.00000,  0.00000,  0.00000, 1,1,   2.01,   1,1.0000,   0,1.0000,   0,1.0000,   0,1.0000
    16,    31,'3 ',5.72551E-3,1.48411E-2,1.37826E-3,'                                        ',   72.49,    0.00,    0.00,    0.00,    0.00,    0.00,    0.00,    0.00,    0.00,    0.00,    0.00,    0.00,  0.00000,  0.00000,  0.00000,  0.00000, 1,1,   2.01,   1,1.0000,   0,1.0000,   0,1.0000,   0,1.0000
...